Circuit: * Z:\home\solomon\ICWC\Mini_Projects\Mini_Project_2\LNA.asc

WARNING: Node N015 is floating.
WARNING: Node N009 is floating.
WARNING: Node N005 is floating.

Instance "m:x4:1": Length shorter than recommended for a level 1 MOSFET.
Instance "m:x3:1": Length shorter than recommended for a level 1 MOSFET.
Instance "m:x2:1": Length shorter than recommended for a level 1 MOSFET.
Instance "m:x1:1": Length shorter than recommended for a level 1 MOSFET.
Direct Newton iteration for .op point succeeded.

Date: Fri May 06 12:32:36 2022
Total elapsed time: 0.100 seconds.

tnom = 27
temp = 27
method = trap
totiter = 6
traniter = 0
tranpoints = 0
accept = 0
rejected = 0
matrix size = 33
fillins = 1
solver = Normal
Matrix Compiler1:      76 opcodes
Matrix Compiler2: 2.25 KB object code size
