Circuit: * Z:\home\solomon\ICWC\Mini_Projects\Mini_Project_2\LNA.asc

Instance "m:x1:1": Length shorter than recommended for a level 1 MOSFET.
Instance "m:x1:1": Width narrower than recommended for a level 1 MOSFET.
Direct Newton iteration for .op point succeeded.

Date: Wed May 04 20:12:50 2022
Total elapsed time: 0.076 seconds.

tnom = 27
temp = 27
method = modified trap
totiter = 2255
traniter = 2251
tranpoints = 1121
accept = 1070
rejected = 51
matrix size = 8
fillins = 0
solver = Normal
Matrix Compiler1: 264 bytes object code size  0.2/0.1/[0.1]
Matrix Compiler2: 560 bytes object code size  0.1/0.2/[0.1]

