Circuit: * Z:\home\solomon\ICWC\Mini_Projects\Mini_Project_2\LNA.asc

WARNING: Node N025 is floating.
WARNING: Node N014 is floating.
WARNING: Node N011 is floating.
WARNING: Node N009 is floating.

WARNING: Less than two connections to node NC_01.  This node is used by V7.
WARNING: Less than two connections to node NC_02.  This node is used by L3.
WARNING: Less than two connections to node NC_03.  This node is used by L9.
WARNING: Less than two connections to node NC_04.  This node is used by R13.
Instance "m:x6:1": Length shorter than recommended for a level 1 MOSFET.
Instance "m:x5:1": Length shorter than recommended for a level 1 MOSFET.
Instance "m:x4:1": Length shorter than recommended for a level 1 MOSFET.
Instance "m:x3:1": Length shorter than recommended for a level 1 MOSFET.
Instance "m:x2:1": Length shorter than recommended for a level 1 MOSFET.
Instance "m:x1:1": Length shorter than recommended for a level 1 MOSFET.
Direct Newton iteration for .op point succeeded.

Date: Fri May 06 19:22:53 2022
Total elapsed time: 0.087 seconds.

tnom = 27
temp = 27
method = trap
totiter = 9
traniter = 0
tranpoints = 0
accept = 0
rejected = 0
matrix size = 60
fillins = 0
solver = Normal
Matrix Compiler1:     140 opcodes
Matrix Compiler2: 3.97 KB object code size
