Circuit: * Z:\home\solomon\ICWC\Mini_Projects\Mini_Project_2\LNA.asc

WARNING: Node N018 is floating.
WARNING: Node N009 is floating.
WARNING: Node N005 is floating.
WARNING: Node N015 is floating.

WARNING: Less than two connections to node N015.  This node is used by C9.
Instance "m:x4:1": Length shorter than recommended for a level 1 MOSFET.
Instance "m:x3:1": Length shorter than recommended for a level 1 MOSFET.
Instance "m:x2:1": Length shorter than recommended for a level 1 MOSFET.
Instance "m:x1:1": Length shorter than recommended for a level 1 MOSFET.
Direct Newton iteration for .op point succeeded.

Date: Thu May 05 00:11:38 2022
Total elapsed time: 0.047 seconds.

tnom = 27
temp = 27
method = trap
totiter = 6
traniter = 0
tranpoints = 0
accept = 0
rejected = 0
matrix size = 37
fillins = 0
solver = Normal
Matrix Compiler1:      88 opcodes
Matrix Compiler2: 2.54 KB object code size
