Circuit: * Z:\home\solomon\ICWC\Mini_Projects\Mini_Project_1\matching_cir.asc


Date: Wed May 04 23:59:54 2022
Total elapsed time: 0.054 seconds.

tnom = 27
temp = 27
method = trap
totiter = 0
traniter = 0
tranpoints = 0
accept = 0
rejected = 0
matrix size = 7
fillins = 0
solver = Normal

